/*--------------------------------*- C++ -*----------------------------------*\
| =========                 |                                                 |
| \\      /  F ield         | OpenFOAM: The Open Source CFD Toolbox           |
|  \\    /   O peration     | Version:  4.0                                   |
|   \\  /    A nd           | Web:      www.OpenFOAM.org                      |
|    \\/     M anipulation  |                                                 |
\*---------------------------------------------------------------------------*/
FoamFile
{
    version     2.0;
    format      ascii;
    class       dictionary;
    location    "system";
    object      fvSolution;
}
// * * * * * * * * * * * * * * * * * * * * * * * * * * * * * * * * * * * * * //

solvers
{
    "(rho)"
    {
        solver          PCG;
        preconditioner  DIC;
        tolerance       1e-06;
        relTol          0.1;
    }

   "(rho)Final"
    {
        $rho;
        tolerance       1e-06;
        relTol          0;
    }
    
    "(G)"
    {
        solver          PCG;
        preconditioner  DIC;
        tolerance       1e-08;
        relTol          0.1;
    }

   "(G)Final"
    {
        $rho;
        tolerance       1e-08;
        relTol          0;
    }

    p
    {
        solver          GAMG;
        tolerance       1e-06;
        relTol          0.01;
        smoother        GaussSeidel;
    }

    pFinal
    {
        $p;
        tolerance       1e-06;
        relTol          0;
    }
    "Ii.*"
    {
        solver              GAMG;
        tolerance           1e-4;
        relTol              0;
        smoother            symGaussSeidel;
        maxIter             1;
        nPostSweeps         1;
    }

    "G.*"
    {
        solver          PCG;
        preconditioner  DIC;
        tolerance       1e-04;
        relTol          0;
    }

    "(U|h|R|k|epsilon)"
    {
        solver          smoothSolver;
        smoother        symGaussSeidel;
        tolerance       1e-06;
        relTol          0.1;
    }

    "(U|h|R|k|epsilon)Final"
    {
        $U;
        tolerance       1e-06;
        relTol          0;
    }

    "(Yi)"

    {
        $h;
    }

    "(CO|CO2|N2)Final"
    {
        $Yi;
        tolerance       1e-06;
        relTol          0;
    }
    
    
    "(O2)Final"
    {
        $Yi;
        tolerance       1e-08;
        relTol          0;
        minIter         2;
    }

    
    "tempAlphacDiffScalar"
    {
        solver          PCG;
        preconditioner  DIC;
        tolerance       1e-8;
        relTol          0;
    }
    
    "tempApDiffScalar"
    {
        solver          PCG;
        preconditioner  DIC;
        tolerance       1e-8;
        relTol          0;
    }
    
    "tempEpDiffScalar"
    {
        solver          PCG;
        preconditioner  DIC;
        tolerance       1e-8;
        relTol          0;
    }
    
    "tempSigmapDiffScalar"
    {
        solver          PCG;
        preconditioner  DIC;
        tolerance       1e-8;
        relTol          0;
    }
    
    "tempSrhoDiffWorkField"
    {
        solver          PCG;
        preconditioner  DIC;
        tolerance       1e-8;
        relTol          0;
    }
    
    "tempSrhoRhoDiffWorkField"
    {
        solver          PCG;
        preconditioner  DIC;
        tolerance       1e-8;
        relTol          0;
    }
    
    "tempSYiDiffWorkField"
    {
        solver          PCG;
        preconditioner  DIC;
        tolerance       1e-8;
        relTol          0;
    }
    
    "tempShDiffWorkField"
    {
        solver          PCG;
        preconditioner  DIC;
        tolerance       1e-8;
        relTol          0;
    }
    
    "tempSUDiffWorkField"
    {
        solver          PCG;
        preconditioner  DIC;
        tolerance       1e-8;
        relTol          0;
    }
    
    "tempDiffScalar"
    {
        solver          PCG;
        preconditioner  DIC;
        tolerance       1e-8;
        relTol          0;
    }

    "tempDiffVector"
    {
        solver          PCG;
        preconditioner  DIC;
        tolerance       1e-8;
        relTol          0;
    }
    
    "tempGasDiffScalar"
    {
        solver          PCG;
        preconditioner  DIC;
        tolerance       1e-8;
        relTol          0;
    }
    
    "tempGasDiffVector"
    {
        solver          PCG;
        preconditioner  DIC;
        tolerance       1e-8;
        relTol          0;
    }
    
    "tempExplicitDiffScalar"
    {
        solver          PCG;
        preconditioner  DIC;
        tolerance       1e-8;
        relTol          0;
    }
    
    "tempExplicitDiffVector"
    {
        solver          PCG;
        preconditioner  DIC;
        tolerance       1e-8;
        relTol          0;
    }
}

PIMPLE
{
    transonic       no;
    nCorrectors     3;
    nNonOrthogonalCorrectors 0;
    momentumPredictor yes;
}

SIMPLE
{
    nNonOrthogonalCorrectors 0;
}

relaxationFactors
{
    fields
    {
        ".*"            1;
    }
    equations
    {
        ".*"            1;
    }
}


// ************************************************************************* //
